      40
 i =       58, E =     -1056.2180998773
  N         0.0880513280       -0.0054787686        1.4415428546
  C         0.7110447024        0.8824062092        0.6645408763
  H         1.2990210784        1.6523131024        1.1612040961
  C        -0.6263250894       -0.8888886394        0.7395024653
  H        -1.1603435979       -1.6502077583        1.3076365674
  N         4.4082547775        1.9182878410        0.7747728647
  C         5.3908416608        1.0303704426        0.9444083960
  H         5.2389195796        0.2717461757        1.7116501269
  C         4.6766111541        2.8027020512       -0.1874668777
  H         3.9360029766        3.5797333976       -0.3672346283
  N        -2.6146664295        1.9102436744        3.4853729821
  C        -3.2378800739        2.7978280309        4.2623510553
  H        -3.8261136743        3.5676118279        3.7657148139
  C        -1.9001877364        1.0268037509        4.1874245429
  H        -1.3658330871        0.2657859588        3.6191417204
  N        -6.9348819758        3.8341187921        4.1520571091
  C        -7.9174515958        2.9459955343        3.9825175140
  H        -7.7654984765        2.1872855421        3.2153424497
  C        -7.2032133872        4.7182994485        5.1143478483
  H        -6.4626708604        5.4953923515        5.2941218462
  N        -0.0885571637        0.0063581357       -1.4410535598
  C        -0.7124433729       -0.8808272812       -0.6641263973
  H        -1.3024277544       -1.6493474684       -1.1607674825
  C         0.6278978506        0.8884729574       -0.7392977173
  H         1.1660932194        1.6464846324       -1.3079735769
  N        -4.4081416847       -1.9185035921       -0.7748137905
  C        -5.3908494746       -1.0306984976       -0.9446740088
  H        -5.2393036166       -0.2728046468       -1.7125803133
  C        -4.6762798512       -2.8026475861        0.1877270348
  H        -3.9353281957       -3.5794864095        0.3678489844
  N         2.6150770977       -1.9092733624       -3.4858256470
  C         3.2389303195       -2.7965771827       -4.2627416891
  H         3.8289083439       -3.5649978265       -3.7659954524
  C         1.8987087557       -1.0272290819       -4.1876252323
  H         1.3606982497       -0.2689080559       -3.6190285973
  N         6.9347879789       -3.8340897418       -4.1521141910
  C         7.9175267559       -2.9464373750       -3.9822140310
  H         7.7659608735       -2.1883071106       -3.2143924940
  C         7.2029499342       -4.7183327675       -5.1145828924
  H         6.4621102573       -5.4951283450       -5.2947174261
