      40
 i =     1281, E =      -179.3313910966
  N        -0.0334833976        0.1398834408        1.3367724316
  C         0.6137513293        0.9936479121        0.5564573340
  H         1.2025278912        1.7564161143        1.0338012379
  C        -0.7523738783       -0.7461680526        0.6687139353
  H        -1.2976980720       -1.4697515640        1.2485470017
  N         4.5325996048        1.8333570250        0.8384887298
  C         5.5102152875        0.9589275075        1.0264909664
  H         5.3630719619        0.2158571403        1.7896002611
  C         4.7826873108        2.7084259394       -0.1226697277
  H         4.0417405349        3.4650018324       -0.3057463709
  N        -2.7131639652        1.9984390225        3.4303376428
  C        -3.3318381179        2.8728201462        4.2079642137
  H        -3.9403913685        3.6206581093        3.7329406217
  C        -1.9726355241        1.1267434034        4.0987158641
  H        -1.4453578953        0.3877913707        3.5221429051
  N        -6.9173026931        3.8088120466        4.2220117683
  C        -7.8920511238        2.9333303882        4.0275137942
  H        -7.7395325958        2.1941832391        3.2608486293
  C        -7.1706619862        4.6813616826        5.1844378334
  H        -6.4299743283        5.4355010993        5.3780657406
  N        -0.1489870141        0.0509375071       -1.5010656540
  C        -0.8039280773       -0.7981339506       -0.7199277027
  H        -1.4080571907       -1.5521316389       -1.1922258751
  C         0.5638719680        0.9419661325       -0.8344619434
  H         1.1041968465        1.6688682252       -1.4145104756
  N        -4.3168188593       -1.9913834640       -0.6816224687
  C        -5.2956264771       -1.1184014953       -0.8722108503
  H        -5.1535582467       -0.3790248665       -1.6402645923
  C        -4.5646033566       -2.8640692205        0.2821366538
  H        -3.8186090457       -3.6136666783        0.4738464878
  N         2.5702198519       -1.8309221798       -3.5894619578
  C         3.1925809659       -2.7027980047       -4.3668104984
  H         3.7981752621       -3.4518829435       -3.8888884121
  C         1.8319833630       -0.9580135840       -4.2585828672
  H         1.3033439657       -0.2196765193       -3.6825804571
  N         6.9828377378       -3.8620409983       -4.1183746214
  C         7.9572532391       -2.9862166562       -3.9258389374
  H         7.8069943950       -2.2470535418       -3.1596774398
  C         7.2361665617       -4.7350146307       -5.0812199802
  H         6.4966468280       -5.4914988905       -5.2709963075
